data/input/matpower/sample_913.m
function mpc = powergrid
mpc.version = '2';
mpc.baseMVA = 100;
mpc.bus = [
	1	1	300.558181	107.345753	0	-400	1	1.006228	14.140350	130	1	1.100000	0.900000;
	2	1	102.720016	72.452756	0	0	1	1.022407	18.100478	130	1	1.100000	0.900000;
	3	1	670.024432	179.837346	0	0	1	0.972506	9.718397	130	1	1.100000	0.900000;
	4	1	178.559350	116.935919	0	0	1	1.017568	11.342732	130	1	1.100000	0.900000;
	5	1	33.236440	16.682957	0	0	1	1.020825	-5.505274	130	1	1.100000	0.900000;
	6	1	289.350251	85.790397	0	0	1	0.975421	-8.180308	130	1	1.100000	0.900000;
	7	1	278.601398	-87.448187	0	0	1	1.026084	-4.235211	130	1	1.100000	0.900000;
	8	1	289.550265	39.699574	0	0	1	1.028472	-5.267349	130	1	1.100000	0.900000;
	9	1	72.638791	29.378854	0	0	1	1.023058	-7.016988	130	1	1.100000	0.900000;
	10	1	44.629085	23.613176	0	0	1	1.044249	5.114584	220	1	1.100000	0.900000;
	11	1	478.574724	233.753658	0	0	1	0.979875	7.475745	220	1	1.100000	0.900000;
	12	1	758.376840	265.456203	0	-400	1	0.955023	23.760909	400	1	1.100000	0.900000;
	13	1	122.929171	-76.379922	0	0	1	1.002434	31.697954	400	1	1.100000	0.900000;
	14	1	9.219755	1.012675	0	0	1	1.051997	-2.369673	400	1	1.100000	0.900000;
	15	1	542.771434	397.072986	0	0	1	1.017257	-2.297252	400	1	1.100000	0.900000;
	16	1	118.801428	85.168300	0	0	1	1.016374	-3.561197	400	1	1.100000	0.900000;
	17	1	262.310921	100.178807	0	0	1	1.007572	-3.698733	400	1	1.100000	0.900000;
	18	1	126.455759	61.638598	0	0	1	1.006603	-1.741662	400	1	1.100000	0.900000;
	19	1	648.471632	381.347232	0	0	1	0.979877	-9.814527	400	1	1.100000	0.900000;
	20	1	519.497302	326.909279	0	0	1	0.942044	-13.579207	400	1	1.100000	0.900000;
	21	1	683.665775	316.665294	0	0	1	0.967874	-12.789594	400	1	1.100000	0.900000;
	22	1	543.896409	122.816157	0	0	1	0.981542	-10.716503	400	1	1.100000	0.900000;
	23	1	0	0	0	-100	1	0.931999	17.233840	400	1	1.100000	0.900000;
	24	1	0	0	0	0	1	0.987750	12.808627	130	1	1.100000	0.900000;
	25	1	0	0	0	0	1	1.004383	24.385543	130	1	1.100000	0.900000;
	26	1	0	0	0	0	1	0.940615	16.417768	400	1	1.100000	0.900000;
	27	1	0	0	0	0	1	1.032368	4.731446	400	1	1.100000	0.900000;
	28	1	0	0	0	0	1	0.971569	11.075085	400	1	1.100000	0.900000;
	29	1	0	0	0	0	1	1.029674	2.679512	400	1	1.100000	0.900000;
	30	1	0	0	0	0	1	0.936766	-7.245254	400	1	1.100000	0.900000;
	31	1	0	0	0	0	1	1.014543	4.944099	400	1	1.100000	0.900000;
	32	1	0	0	0	0	1	1.024811	-8.857055	400	1	1.100000	0.900000;
	33	1	0	0	0	0	1	1.024811	-8.857055	400	1	1.100000	0.900000;
	34	1	0	0	0	0	1	0.984756	-5.728949	400	1	1.100000	0.900000;
	35	1	0	0	0	0	1	0.992275	-8.748356	400	1	1.100000	0.900000;
	36	1	0	0	0	0	1	1.031435	-4.492002	400	1	1.100000	0.900000;
	37	1	0	0	0	0	1	1.025425	-6.915454	400	1	1.100000	0.900000;
	38	2	0	0	0	0	1	1	23.572701	15	1	1.100000	0.900000;
	39	2	0	0	0	0	1	1	13.200755	15	1	1.100000	0.900000;
	40	2	0	0	0	0	1	0	12.808627	15	1	1.100000	0.900000;
	41	2	0	0	0	0	1	1	27.631758	15	1	1.100000	0.900000;
	42	2	0	0	0	0	1	0	11.342732	15	1	1.100000	0.900000;
	43	2	0	0	0	0	1	1	-2.443622	15	1	1.100000	0.900000;
	44	2	0	0	0	0	1	1	11.891054	15	1	1.100000	0.900000;
	45	2	0	0	0	0	1	1	13.186247	15	1	1.100000	0.900000;
	46	2	0	0	0	0	1	1	22.367483	15	1	1.100000	0.900000;
	47	2	0	0	0	0	1	0	17.233840	15	1	1.100000	0.900000;
	48	2	0	0	0	0	1	0	4.731446	15	1	1.100000	0.900000;
	49	2	0	0	0	0	1	1	16.894795	15	1	1.100000	0.900000;
	50	2	0	0	0	0	1	0	-2.369673	15	1	1.100000	0.900000;
	51	2	0	0	0	0	1	1	3.202871	15	1	1.100000	0.900000;
	52	3	0	0	0	0	1	1	0	15	1	1.000000	1.000000;
	53	2	0	0	0	0	1	1	3.816746	15	1	1.100000	0.900000;
	54	2	0	0	0	0	1	0	-9.814527	15	1	1.100000	0.900000;
	55	2	0	0	0	0	1	1	-5.105019	15	1	1.100000	0.900000;
	56	2	0	0	0	0	1	1	-7.008022	15	1	1.100000	0.900000;
	57	2	0	0	0	0	1	1	-5.015709	15	1	1.100000	0.900000;
	58	2	0	0	0	0	1	1	-5.015709	15	1	1.100000	0.900000;
	59	2	0	0	0	0	1	1	29.620547	15	1	1.100000	0.900000;
	60	2	0	0	0	0	1	1	33.666104	15	1	1.100000	0.900000;
	61	2	0	0	0	0	1	0	-5.505274	15	1	1.100000	0.900000;
];
mpc.gen = [
	52	0	0	1840.000000	-540.000000	1	1	1	2800.000000	10.000000	0	0	0	0	0	0	0	0	0	0	0;
	38	520.000000	0	720.000000	-720.000000	1	100	1	720.000000	10.000000	0	0	0	0	0	0	0	0	0	0	0;
	39	236.284643	0	540.000000	-540.000000	1	100	1	540.000000	10.000000	0	0	0	0	0	0	0	0	0	0	0;
	40	0	0	630.000000	-630.000000	0	100	0	630.000000	10.000000	0	0	0	0	0	0	0	0	0	0	0;
	41	227.500000	0	540.000000	-540.000000	1	100	1	540.000000	10.000000	0	0	0	0	0	0	0	0	0	0	0;
	42	0	0	325.000000	-225.000000	0	100	0	475.000000	10.000000	0	0	0	0	0	0	0	0	0	0	0;
	43	260.000000	0	560.000000	-360.000000	1	100	1	560.000000	10.000000	0	0	0	0	0	0	0	0	0	0	0;
	44	380.000000	0	360.000000	-280.000000	1	100	1	380.000000	10.000000	0	0	0	0	0	0	0	0	0	0	0;
	45	552.500000	0	965.000000	-765.000000	1	100	1	965.000000	10.000000	0	0	0	0	0	0	0	0	0	0	0;
	46	650.000000	0	900.000000	-900.000000	1	100	1	900.000000	10.000000	0	0	0	0	0	0	0	0	0	0	0;
	47	0	0	720.000000	-720.000000	0	100	0	720.000000	10.000000	0	0	0	0	0	0	0	0	0	0	0;
	48	0	0	570.000000	-370.000000	0	100	0	570.000000	10.000000	0	0	0	0	0	0	0	0	0	0	0;
	49	490.191564	0	515.000000	-415.000000	1	100	1	575.000000	10.000000	0	0	0	0	0	0	0	0	0	0	0;
	50	0	0	570.000000	-570.000000	0	100	0	0.000000	-0.000000	0	0	0	0	0	0	0	0	0	0	0;
	51	455.000000	0	630.000000	-630.000000	1	100	1	630.000000	10.000000	0	0	0	0	0	0	0	0	0	0	0;
	53	390.000000	0	580.000000	-540.000000	1	100	1	540.000000	10.000000	0	0	0	0	0	0	0	0	0	0	0;
	54	0	0	630.000000	-630.000000	0	100	0	630.000000	10.000000	0	0	0	0	0	0	0	0	0	0	0;
	55	375.433985	0	630.000000	-630.000000	1	100	1	630.000000	10.000000	0	0	0	0	0	0	0	0	0	0	0;
	56	390.000000	0	540.000000	-540.000000	1	100	1	540.000000	10.000000	0	0	0	0	0	0	0	0	0	0	0;
	57	390.000000	0	540.000000	-540.000000	1	100	1	540.000000	10.000000	0	0	0	0	0	0	0	0	0	0	0;
	58	390.000000	0	540.000000	-540.000000	1	100	1	540.000000	10.000000	0	0	0	0	0	0	0	0	0	0	0;
	59	325.000000	0	520.000000	-450.000000	1	100	1	560.000000	10.000000	0	0	0	0	0	0	0	0	0	0	0;
	60	1032.929170	0	4000.000000	-2050.000000	1	100	1	4500.000000	10.000000	0	0	0	0	0	0	0	0	0	0	0;
	61	0	0	250.000000	-250.000000	0	100	0	0.000000	-0.000000	0	0	0	0	0	0	0	0	0	0	0;
];
mpc.branch = [
	1	3	0.010000	0.070000	0.013804	175.000000	250	250	0	0	1	-360	360;
	1	3	0.010000	0.070000	0.013804	175.000000	250	250	0	0	1	-360	360;
	2	24	0.014024	0.090000	0.018052	175.000000	250	250	0	0	1	-360	360;
	2	24	0.014024	0.090000	0.018052	175.000000	250	250	0	0	1	-360	360;
	3	24	0.006982	0.050000	0.010088	175.000000	250	250	0	0	1	-360	360;
	3	24	0.006982	0.050000	0.010088	175.000000	250	250	0	0	1	-360	360;
	25	4	0.030000	0.200000	0.030263	175.000000	250	250	0	0	1	-360	360;
	25	4	0.030000	0.200000	0.030263	175.000000	250	250	0	0	1	-360	360;
	5	7	0.010000	0.060000	0.012211	175.000000	250	250	0	0	1	-360	360;
	5	7	0.010000	0.060000	0.012211	175.000000	250	250	0	0	1	-360	360;
	5	9	0.014970	0.120000	0.024954	175.000000	250	250	0	0	1	-360	360;
	5	9	0.014970	0.120000	0.024954	175.000000	250	250	0	0	1	-360	360;
	6	8	0.037988	0.280000	0.059995	175.000000	250	250	0	0	0	-360	360;
	6	8	0.037988	0.280000	0.059995	175.000000	250	250	0	0	1	-360	360;
	6	9	0.050000	0.300000	0.059995	175.000000	250	250	0	0	1	-360	360;
	7	8	0.010000	0.080000	0.015928	175.000000	250	250	0	0	1	-360	360;
	7	8	0.010000	0.080000	0.015928	175.000000	250	250	0	0	0	-360	360;
	10	11	0.012004	0.090000	0.015205	250.000000	250	250	0	0	1	-360	360;
	10	11	0.012004	0.090000	0.015205	250.000000	250	250	0	0	1	-360	360;
	26	23	0.001000	0.008000	0.201062	700.000000	250	250	0	0	1	-360	360;
	26	27	0.006000	0.060000	1.799488	700.000000	250	250	0	0	1	-360	360;
	26	28	0.004000	0.040000	1.201344	700.000000	250	250	0	0	1	-360	360;
	26	12	0.005000	0.045000	1.402400	700.000000	250	250	0	0	1	-360	360;
	23	28	0.004000	0.035000	1.050560	700.000000	250	250	0	0	1	-360	360;
	23	12	0.005000	0.050000	1.497920	700.000000	250	250	0	0	1	-360	360;
	27	29	0.004000	0.040000	1.201344	700.000000	250	250	0	0	1	-360	360;
	27	30	0.010000	0.100000	3.000864	700.000000	250	250	0	0	1	-360	360;
	30	15	0	-0.040000	0	700.000000	250	250	0	0	1	-360	360;
	28	31	0.004000	0.040000	1.201344	700.000000	250	250	0	0	1	-360	360;
	28	31	0.004000	0.040000	1.201344	700.000000	250	250	0	0	1	-360	360;
	31	29	0.001000	0.010000	0.301594	700.000000	250	250	0	0	1	-360	360;
	31	32	0.006000	0.080000	2.397664	700.000000	250	250	0	0	1	-360	360;
	32	14	0	-0.040000	0	700.000000	250	250	0	0	1	-360	360;
	31	33	0.006000	0.080000	2.397664	700.000000	250	250	0	0	1	-360	360;
	33	14	0	-0.040000	0	700.000000	250	250	0	0	1	-360	360;
	29	34	0.010000	0.066669	2.000576	700.000000	250	250	0	0	1	-360	360;
	34	15	0	-0.026669	0	700.000000	250	250	0	0	1	-360	360;
	29	35	0.006000	0.080000	2.397664	700.000000	250	250	0	0	1	-360	360;
	35	36	0	-0.030000	0	700.000000	250	250	0	0	1	-360	360;
	14	36	0.003000	0.030000	0.899744	700.000000	250	250	0	0	1	-360	360;
	14	20	0.006000	0.045000	1.301888	700.000000	250	250	0	0	1	-360	360;
	15	16	0.002000	0.015000	0.497632	700.000000	250	250	0	0	1	-360	360;
	15	36	0.002000	0.020000	0.598176	700.000000	250	250	0	0	1	-360	360;
	16	36	0.001000	0.010000	0.301594	700.000000	250	250	0	0	1	-360	360;
	16	17	0.001000	0.010000	0.301594	700.000000	250	250	0	0	1	-360	360;
	16	18	0.002000	0.020000	0.598176	700.000000	250	250	0	0	1	-360	360;
	36	37	0.002000	0.020000	0.598176	700.000000	250	250	0	0	1	-360	360;
	36	37	0.002000	0.020000	0.598176	700.000000	250	250	0	0	1	-360	360;
	37	19	0.004000	0.040000	1.201344	700.000000	250	250	0	0	1	-360	360;
	37	19	0.004000	0.040000	1.201344	700.000000	250	250	0	0	1	-360	360;
	37	21	0.011000	0.080000	2.397664	700.000000	250	250	0	0	1	-360	360;
	17	18	0.001000	0.015000	0.497632	700.000000	250	250	0	0	1	-360	360;
	20	21	0.002000	0.020000	0.598176	700.000000	250	250	0	0	1	-360	360;
	21	22	0.003000	0.030000	0.899744	700.000000	250	250	0	0	1	-360	360;
	21	22	0.003000	0.030000	0.899744	700.000000	250	250	0	0	1	-360	360;
	12	13	0.003000	0.030000	3.000864	700.000000	250	250	0	0	1	-360	360;
	12	13	0.003000	0.030000	3.000864	700.000000	250	250	0	0	1	-360	360;
	2	38	0	0.018750	0	800	250	250	0	0	1	-360	360;
	3	39	0	0.025000	0	600	250	250	0	0	1	-360	360;
	24	40	0	0.021429	0	700	250	250	0	0	1	-360	360;
	25	41	0	0.025000	0	600	250	250	0	0	1	-360	360;
	4	42	0	0.060000	0	1250	250	250	0	0	1	-360	360;
	6	43	0	0.037500	0	400	250	250	0	0	1	-360	360;
	7	44	0	0.075000	0	1200	250	250	0	0	1	-360	360;
	11	45	0	0.017647	0	850	250	250	0	0	1	-360	360;
	26	46	0	0.015000	0	1000	250	250	0	0	1	-360	360;
	23	47	0	0.018750	0	800	250	250	0	0	1	-360	360;
	27	48	0	0.050000	0	300	250	250	0	0	1	-360	360;
	31	49	0	0.042857	0	1350	250	250	0	0	1	-360	360;
	14	50	0	0.017391	0	575	250	250	0	0	1	-360	360;
	15	51	0	0.021429	0	700	250	250	0	0	1	-360	360;
	18	52	0	0.025000	0	600	250	250	0	0	1	-360	360;
	18	53	0	0.025000	0	600	250	250	0	0	1	-360	360;
	19	54	0	0.021429	0	700	250	250	0	0	1	-360	360;
	19	55	0	0.021429	0	700	250	250	0	0	1	-360	360;
	21	56	0	0.025000	0	600	250	250	0	0	1	-360	360;
	22	57	0	0.025000	0	600	250	250	0	0	1	-360	360;
	22	58	0	0.025000	0	600	250	250	0	0	1	-360	360;
	12	59	0	0.030000	0	500	250	250	0	0	1	-360	360;
	13	60	0	0.003333	0	4500	250	250	0	0	1	-360	360;
	26	1	0	0.008000	0	1250	250	250	0.892860	0	1	-360	360;
	23	2	0	0.008000	0	1250	250	250	0.892860	0	1	-360	360;
	28	4	0	0.012000	0	833.300000	250	250	0.934580	0	1	-360	360;
	31	10	0	0.012000	0	833.300000	250	250	0.952380	0	1	-360	360;
	36	8	0	0.010000	0	1000	250	250	0	0	1	-360	360;
	36	8	0	0.010000	0	1000	250	250	0	0	1	-360	360;
	37	9	0	0.010000	0	1000	250	250	0	0	1	-360	360;
	37	9	0	0.010000	0	1000	250	250	0	0	1	-360	360;
	5	61	0	0.025000	0	1200	250	250	0	0	1	-360	360;
];
